[General]
image-path=../../images
output-scalar-file-append = false
sim-time-limit=100s
num-rngs = 3
network = simu5g.simulations.NR.cdn.singlemec.vcdn
**.routingRecorder.enabled = false

*.playgroundSizeX = 20000m
*.playgroundSizeY = 20000m
*.playgroundSizeZ = 50m

##########################################################
#            VeinsManager parameters                     #
##########################################################
*.veinsManager.host = "localhost"       # if traci-launchd runs on localhost
#*.veinsManager.host = "sumo"       # traci-launchd on different host/container
*.veinsManager.moduleType = "simu5g.nodes.cars.NRCar"
*.veinsManager.moduleName = "car"
*.veinsManager.launchConfig = xmldoc("heterogeneous.launchd.xml")
*.veinsManager.updateInterval = 0.1s

##########################################################
#                      Mobility                          #
##########################################################
*.car[*].mobility.typename = "VeinsInetMobility"


## Schedulers
**.mac.schedulingDisciplineDl = "MAXCI"
**.mac.schedulingDisciplineUl = "MAXCI"


**.cellularNic.channelModel[0].shadowing = false
**.cellularNic.channelModel[0].fading = false

**.mecHost.**.vector-recording = true
**.vector-recording = true


##########################################################
#              NR specific parameters                   #
##########################################################
*.gNodeB*.cellInfo.broadcastMessageInterval = 0.5s
**.fbPeriod = 40   # reports CQI every 40ms
**.amcType = "NRAmc"
**.pilotMode = "ROBUST_CQI" 
**.targetBler = 0.01
**.blerShift = 5  

############### Number of Resource Blocks ################
**.numBands = ${numBands = 6,10,50,100}

############### Transmission Power ##################
**.ueTxPower = 26
**.eNodeBTxPower = 30

############### IPv4 configurator config #################
*.configurator.config = xmldoc("./demo.xml")


######################_ME Host Side_#####################
# resources available
*.mecHost.maxMECApps = 100												#max ME Apps to instantiate
*.mecHost.maxRam = 32GB													#max KBytes of Ram Space 
*.mecHost.maxDisk = 100TB												#max KBytes of Ram Space 
*.mecHost.maxCpuSpeed = 300000											#max percentage of CPU
#----------------------------------------
**.gNodeB*.mecHost = "mecHost"
#

#-------REST Service:---------------
**.hasRNISupport = true
*.mecHost.mecPlatform.numMecServices = 0
*.mecHost.mecPlatform.mecService[0] = "RNIService"
*.mecHost.mecPlatform.mecService[0].localAddress = "mecHost.virtualisationInfrastructure"
*.mecHost.mecPlatform.mecService[0].localPort = 10020

*.mecHost.mecPlatform.mecService[0].rng-0 = 0 # request service time
*.mecHost.mecPlatform.mecService[0].rng-1 = 1 # subscription service time
*.mecHost.mecPlatform.mecService[0].requestServiceTime = 15us
*.mecHost.mecPlatform.mecService[0].subscriptionServiceTime = 11us
#############################################################
# Test configuration for handover                           #
#                                                           #
# In this scenario, we consider two eNBs (gNodeB1 and       #
# gNodeB2), which serve two UEs each, at the beginning of   #
# the simulation. ue11 and ue12 are moving from gNodeB1 to  #
# gNodeB2, triggering the handover procedure                #
#############################################################

*.mecHost.mecPlatformManager.mecOrchestrator = ""

[Config Handover-General]
# connect each UE to the gNB only
**.car*.masterId = 0
**.car*.macCellId = 0

**.car[1]*.nrMacCellId = 1
**.car[1]*.nrMasterId = 1
**.car[4]*.nrMacCellId = 2
**.car[4]*.nrMasterId = 2

# enable handover
*.gNodeB*.cellularNic.phy.enableHandover = true
*.car[*].cellularNic.nrPhy.enableHandover = true


# X2 configuration
*.gNodeB2.numX2Apps = 2    # one x2App per peering gNodeB
*.gNodeB*.numX2Apps = 1    # one x2App per peering gNodeB

*.gNodeB*.x2App[*].server.localPort = 5000 + ancestorIndex(1) # Server ports (x2App[0]=5000, x2App[1]=5001, ...)
*.gNodeB1.x2App[0].client.connectAddress = "gNodeB2%x2ppp0" 
*.gNodeB2.x2App[0].client.connectAddress = "gNodeB1%x2ppp0" 
*.gNodeB2.x2App[1].client.connectAddress = "gNodeB3%x2ppp0" 
*.gNodeB3.x2App[0].client.connectAddress = "gNodeB2%x2ppp1" 



[Config VoIP-DL2]
extends=Handover-General
sim-time-limit=100s #og 28s

**.vector-recording = true

**.car[0].nrMacCellId = 1
**.car[0].nrMasterId = 1

# connect each UE to the eNB
**.car[0].macCellId = 0
**.car[0].masterId = 0


# connect each UE to the eNB
**.car[1..].nrMacCellId = 2
**.car[1..].nrMasterId = 2

# connect each UE to the eNB
**.car[1..].macCellId = 0
**.car[1..].masterId = 0



#============= Application Setup =============

*.car[*].numApps = 1


#----------------------------------------
# the amount of UDP applications on server should be equal to (numUEs)*(ue[*].numApps) 
*.server.numApps = 1# ${numCars} -1



**.car[0..].app[*].typename = "UdpVideoStreamClient"
**.car[0..].app[*].serverAddress = "server"
**.car[0..].app[*].localPort = 9999
**.car[0..].app[*].serverPort = 3088
**.car[0..].app[*].startTime = uniform(0s, 0.02s)

**.server.app[*].typename = "UdpVideoStreamServer"
**.server.app[*].videoSize = 200MiB
**.server.app[*].localPort = 3088
**.server.app[*].sendInterval = ${send = 100ms}
**.server.app[*].packetLen = ${packetLen = 100B, 200B, 300B, 400B, 500B, 600B, 700B, 800B, 900B, 1KiB, 1.5KiB, 2KiB, 5KiB }
#**.server.app[*].packetLen = ${packetLen = 100B, 300B, 400B}
**.mtu = 10000B



[Config Test]
extends=Handover-General
sim-time-limit=100s #og 28s


#*.numCars = 50
**.vector-recording = true

**.car[0].nrMacCellId = 1
**.car[0].nrMasterId = 1

# connect each UE to the eNB
**.car[0].macCellId = 0
**.car[0].masterId = 0


# connect each UE to the eNB
**.car[1..].nrMacCellId = 2
**.car[1..].nrMasterId = 2

# connect each UE to the eNB
**.car[1..].macCellId = 0
**.car[1..].masterId = 0


#============= Application Setup =============

*.car[*].numApps = 1

#----------------------------------------
# the amount of UDP applications on server should be equal to (numUEs)*(ue[*].numApps) 
*.server.numApps = 1# ${numCars} -1


**.car[0..].app[*].typename = "UdpVideoStreamClient"
**.car[0..].app[*].serverAddress = "server"
**.car[0..].app[*].localPort = 9999
**.car[0..].app[*].serverPort = 3088
**.car[0..].app[*].startTime = uniform(0s, 0.02s)

**.server.app[*].typename = "UdpVideoStreamServer"
**.server.app[*].videoSize = 200MiB
**.server.app[*].localPort = 3088
**.server.app[*].sendInterval = 100ms
**.server.app[*].packetLen = 1KiB
#**.server.app[*].packetLen = ${packetLen = 100B, 300B, 400B}
**.mtu = 10000B