[General]
image-path=../../images
#tkenv-plugin-path = ../../../inet/etc/plugins
output-scalar-file-append = false
sim-time-limit=30s
#network = cana.simulations.simu5gdrone.Fanet5gstatic
network = Fanet5gstatic
warmup-period=5s
repeat = 3
**.routingRecorder.enabled = false


############### Statistics ##################
output-scalar-file = ${resultdir}/${configname}/${repetition}.sca
output-vector-file = ${resultdir}/${configname}/${repetition}.vec
seed-set = ${repetition}
**.vector-recording = false


############### AMC MODULE PARAMETERS ###############
**.numBands = 50

################ PhyLayer & feedback parameters #####################

# HACK to speed up the simulation 
# (sporadic CQI reporting, D2D multicast uses fixed modulations)
**.fbPeriod = 500

############### IPv4 configurator config #################
*.configurator.config = xmldoc("./demo.xml")


# Config canaApp
#
# UEs are deployed along a straight line and served by five eNBs.
#

*.drone*[*].cellularNic.phy.ueTxPower = 30
*.drone*[*].cellularNic.phy.d2dTxPower = 15

# --- gNodeB configuration --- #
*.gNodeB*.mobility.initFromDisplayString = true

# --- UEs configuration --- #
#*.numUe* = 30
*.drone*[*].macCellId = 1
*.drone*[*].masterId = 1
#*.drone2[*].macCellId = 2
#*.drone2[*].masterId = 2
#*.drone3[*].macCellId = 3
#*.drone3[*].masterId = 3
#*.drone4[*].macCellId = 4
#*.drone4[*].masterId = 4
#*.drone5[*].macCellId = 5
#*.drone5[*].masterId = 5

# --- D2D configuration --- #
# Enable D2D for the gNodeB and the UEs involved in direct communications
*.gNodeB*.nicType = "LteNicEnbD2D"
*.drone*[*].nicType = "LteNicUeD2D"
**.amcMode = "D2D"

**.usePreconfiguredTxParams = true
**.d2dCqi = 10

# ------------- Application Setup
*.drone*[*].numApps = 1
*.drone*[*].app[0].typename = "canaapp"
*.drone*[*].app[0].destAddress = "224.0.0.10"     # address of the multicast group 
*.drone*[*].app[0].ttl = 10
*.drone*[*].app[0].msgSize = 14
*.drone*[*].app[0].maxBroadcastRadius = 1000m



############### Statistics ##################
output-scalar-file = ${resultdir}/${configname}/${iterationvars}-${repetition}.sca
output-vector-file = ${resultdir}/${configname}/${iterationvars}-${repetition}.vec
seed-set = ${repetition}
**.sctp.**.scalar-recording = false  # remove annoying statistics from SCTP
**.sctp.**.vector-recording = false  # remove annoying statistics from SCTP
**.vector-recording = false

############### BS position #################
*.gNodeB1.mobility.initialX = 250m
*.gNodeB1.mobility.initialY = 500m
*.gNodeB2.mobility.initialX = 750m
*.gNodeB2.mobility.initialY = 500m

*.numdst = 6
**.dst*.mobility.typename = "stationaryNodeMob"
**.dst[0].mobility.initialX = 300m
**.dst[0].mobility.initialY =  100m
**.dst[0].mobility.initialZ = 0m
**.dst[1].mobility.initialX = 200m
**.dst[1].mobility.initialY = 250m
**.dst[1].mobility.initialZ = 0m
**.dst[2].mobility.initialX = 360m
**.dst[2].mobility.initialY = 220m
**.dst[2].mobility.initialZ = 0m
**.dst[3].mobility.initialX = 300m
**.dst[3].mobility.initialY = 330m
**.dst[3].mobility.initialZ = 0m
**.dst[4].mobility.initialX = 500m
**.dst[4].mobility.initialY = 300m
**.dst[4].mobility.initialZ = 0m
**.dst[5].mobility.initialX = 500m
**.dst[5].mobility.initialY = 200m
**.dst[5].mobility.initialZ = 0m
**.dst[*].mobility.initFromDisplayString = false
**.bstion*.mobility.typename = "stationaryNodeMob"
**.bstion[0].mobility.initialX = 300m
**.bstion[0].mobility.initialY = 20m
**.bstion[0].mobility.initialZ = 0m
**.bstion[1].mobility.initialX = 20m
**.bstion[1].mobility.initialY = 200m
**.bstion[1].mobility.initialZ = 0m
**.bstion[2].mobility.initialX = 580m
**.bstion[2].mobility.initialY = 190m
**.bstion[2].mobility.initialZ = 0m
**.bstion[3].mobility.initialX = 300m
**.bstion[3].mobility.initialY = 380m
**.bstion[3].mobility.initialZ = 0m
**.bstion[*].mobility.initFromDisplayString = false

[Config CANA]
*.ue*[*].mobility.initialY = uniform(410m,420m)
*.ue1[*].mobility.initialX = uniform(0m,400m)
*.ue2[*].mobility.initialX = uniform(400m,800m)
*.ue3[*].mobility.initialX = uniform(800m,1200m)
*.ue4[*].mobility.initialX = uniform(1200m,1600m)
*.ue5[*].mobility.initialX = uniform(1600m,2000m)

*.dn = 10
*.missionid = intuniform(1,4)
*.penetrationrate = 0.4
*.drone*[*].mobility.typename = "DroneNetMob"
*.drone*[*].mobility.initFromDisplayString = false
#**.drone*.mobility.changeInterval = truncnormal(2s, 0.5s)
*.drone*[*].mobility.changeInterval =  1s
*.drone*[*].mobility.nd = 5
*.drone*[*].mobility.initialMovementHeading = uniform(0deg, 360deg)
*.drone*[*].mobility.initialMovementElevation = uniform(-90deg, 90deg)
*.drone*[*].mobility.angleDelta = normal(0deg, 30deg)
*.drone*[*].mobility.rotationAxisAngle = uniform(-10deg,10deg)
*.drone*[*].mobility.speed = truncnormal(15mps, 5mps)
*.drone*[*].mobility.initFromDisplayString = false
*.drone2[*].mobility.initialX = uniform(10m,50m)
*.drone1[*].mobility.initialX = uniform(280m,320m)
*.drone3[*].mobility.initialX = uniform(550m,590m)
*.drone4[*].mobility.initialX = uniform(280m,320m)
*.drone1[*].mobility.initialY = uniform(10m,50m)
*.drone2[*].mobility.initialY = uniform(180m,220m)
*.drone3[*].mobility.initialY = uniform(160m,200m)
*.drone4[*].mobility.initialY = uniform(320m,380m)
*.drone1[*].mobility.initialZ = 0m
*.drone2[*].mobility.initialZ = 0m
*.drone3[*].mobility.initialZ = 0m
*.drone4[*].mobility.initialZ = 0m
*.drone1[*].mbase = "bstion[0]"
*.drone2[*].mbase = "bstion[1]"
*.drone3[*].mbase = "bstion[2]"
*.drone4[*].mbase = "bstion[3]"
repeat=10


#Impact of number of Drones
[Config NumDrone_1]
*.dn = 10
*.missionid = intuniform(1,4)
*.penetrationrate = 0.4
*.drone*[*].mobility.typename = "DroneNetMob"
*.drone*[*].mobility.initFromDisplayString = false
#**.drone*.mobility.changeInterval = truncnormal(2s, 0.5s)
*.drone*[*].mobility.changeInterval =  0.1s
*.drone*[*].mobility.nd = 5
*.drone*[*].mobility.initialMovementHeading = uniform(0deg, 360deg)
*.drone*[*].mobility.initialMovementElevation = uniform(-90deg, 90deg)
*.drone*[*].mobility.angleDelta = normal(0deg, 30deg)
*.drone*[*].mobility.rotationAxisAngle = uniform(-10deg,10deg)
*.drone*[*].mobility.speed = truncnormal(15mps, 5mps)
*.drone*[*].mobility.initFromDisplayString = false
*.drone2[*].mobility.initialX = uniform(10m,50m)
*.drone1[*].mobility.initialX = uniform(280m,320m)
*.drone3[*].mobility.initialX = uniform(550m,590m)
*.drone4[*].mobility.initialX = uniform(280m,320m)
*.drone1[*].mobility.initialY = uniform(10m,50m)
*.drone2[*].mobility.initialY = uniform(180m,220m)
*.drone3[*].mobility.initialY = uniform(160m,200m)
*.drone4[*].mobility.initialY = uniform(320m,380m)
*.drone1[*].mobility.initialZ = 0m
*.drone2[*].mobility.initialZ = 0m
*.drone3[*].mobility.initialZ = 0m
*.drone4[*].mobility.initialZ = 0m
*.drone1[*].mbase = "bstion[0]"
*.drone2[*].mbase = "bstion[1]"
*.drone3[*].mbase = "bstion[2]"
*.drone4[*].mbase = "bstion[3]"
repeat=10

[Config NumDrone_2]
*.dn = 20
*.missionid = intuniform(1,4)
*.penetrationrate = 0.4
*.drone*[*].mobility.typename = "DroneNetMob"
*.drone*[*].mobility.initFromDisplayString = false
#**.drone*.mobility.changeInterval = truncnormal(2s, 0.5s)
*.drone*[*].mobility.changeInterval =  0.1s
*.drone*[*].mobility.nd = 10
*.drone*[*].mobility.initialMovementHeading = uniform(0deg, 360deg)
*.drone*[*].mobility.initialMovementElevation = uniform(-90deg, 90deg)
*.drone*[*].mobility.angleDelta = normal(0deg, 30deg)
*.drone*[*].mobility.rotationAxisAngle = uniform(-10deg,10deg)
*.drone*[*].mobility.speed = truncnormal(15mps, 5mps)
*.drone*[*].mobility.initFromDisplayString = false
*.drone1[*].mobility.initialX = uniform(280m,320m)
*.drone2[*].mobility.initialX = uniform(10m,50m)
*.drone1[*].mobility.initialX = uniform(280m,320m)
*.drone3[*].mobility.initialX = uniform(550m,590m)
*.drone4[*].mobility.initialX = uniform(280m,320m)
*.drone1[*].mobility.initialY = uniform(10m,50m)
*.drone2[*].mobility.initialY = uniform(180m,220m)
*.drone3[*].mobility.initialY = uniform(160m,200m)
*.drone4[*].mobility.initialY = uniform(320m,380m)
*.drone1[*].mobility.initialZ = 0m
*.drone2[*].mobility.initialZ = 0m
*.drone3[*].mobility.initialZ = 0m
*.drone4[*].mobility.initialZ = 0m

*.drone1[*].mbase = "bstion[0]"
*.drone2[*].mbase = "bstion[1]"
*.drone3[*].mbase = "bstion[2]"
*.drone4[*].mbase = "bstion[3]"
repeat=10

[Config NumDrone_3]
*.dn = 30
*.missionid = intuniform(1,4)
*.penetrationrate = 0.4
*.drone*[*].mobility.typename = "DroneNetMob"
*.drone*[*].mobility.initFromDisplayString = false
#**.drone*.mobility.changeInterval = truncnormal(2s, 0.5s)
*.drone*[*].mobility.changeInterval =  0.1s
*.drone*[*].mobility.nd = 15
*.drone*[*].mobility.initialMovementHeading = uniform(0deg, 360deg)
*.drone*[*].mobility.initialMovementElevation = uniform(-90deg, 90deg)
*.drone*[*].mobility.angleDelta = normal(0deg, 30deg)
*.drone*[*].mobility.rotationAxisAngle = uniform(-10deg,10deg)
*.drone*[*].mobility.speed = truncnormal(15mps, 5mps)
*.drone*[*].mobility.initFromDisplayString = false
*.drone2[*].mobility.initialX = uniform(10m,50m)
*.drone1[*].mobility.initialX = uniform(280m,320m)
*.drone3[*].mobility.initialX = uniform(550m,590m)
*.drone4[*].mobility.initialX = uniform(280m,320m)
*.drone1[*].mobility.initialY = uniform(10m,50m)
*.drone2[*].mobility.initialY = uniform(180m,220m)
*.drone3[*].mobility.initialY = uniform(160m,200m)
*.drone4[*].mobility.initialY = uniform(320m,380m)
*.drone1[*].mobility.initialZ = 0m
*.drone2[*].mobility.initialZ = 0m
*.drone3[*].mobility.initialZ = 0m
*.drone4[*].mobility.initialZ = 0m

*.drone1[*].mbase = "bstion[0]"
*.drone2[*].mbase = "bstion[1]"
*.drone3[*].mbase = "bstion[2]"
*.drone4[*].mbase = "bstion[3]"

repeat=10

[Config NumDrone_4]
*.dn = 40
*.missionid = intuniform(1,4)
*.penetrationrate = 0.4
*.drone*[*].mobility.typename = "DroneNetMob"
*.drone*[*].mobility.initFromDisplayString = false
#**.drone*.mobility.changeInterval = truncnormal(2s, 0.5s)
*.drone*[*].mobility.changeInterval =  0.1s
*.drone*[*].mobility.nd = 20
*.drone*[*].mobility.initialMovementHeading = uniform(0deg, 360deg)
*.drone*[*].mobility.initialMovementElevation = uniform(-90deg, 90deg)
*.drone*[*].mobility.angleDelta = normal(0deg, 30deg)
*.drone*[*].mobility.rotationAxisAngle = uniform(-10deg,10deg)
*.drone*[*].mobility.speed = truncnormal(15mps, 5mps)
*.drone*[*].mobility.initFromDisplayString = false
*.drone2[*].mobility.initialX = uniform(10m,50m)
*.drone1[*].mobility.initialX = uniform(280m,320m)
*.drone3[*].mobility.initialX = uniform(550m,590m)
*.drone4[*].mobility.initialX = uniform(280m,320m)
*.drone1[*].mobility.initialY = uniform(10m,50m)
*.drone2[*].mobility.initialY = uniform(180m,220m)
*.drone3[*].mobility.initialY = uniform(160m,200m)
*.drone4[*].mobility.initialY = uniform(320m,380m)
*.drone1[*].mobility.initialZ = 0m
*.drone2[*].mobility.initialZ = 0m
*.drone3[*].mobility.initialZ = 0m
*.drone4[*].mobility.initialZ = 0m

*.drone1[*].mbase = "bstion[0]"
*.drone2[*].mbase = "bstion[1]"
*.drone3[*].mbase = "bstion[2]"
*.drone4[*].mbase = "bstion[3]"
repeat=10

[Config NumDrone_5]
*.dn = 50
*.missionid = intuniform(1,4)
*.penetrationrate = 0.4
*.drone*[*].mobility.typename = "DroneNetMob"
*.drone*[*].mobility.initFromDisplayString = false
#**.drone*.mobility.changeInterval = truncnormal(2s, 0.5s)
*.drone*[*].mobility.changeInterval =  0.1s
*.drone*[*].mobility.nd = 25
*.drone*[*].mobility.initialMovementHeading = uniform(0deg, 360deg)
*.drone*[*].mobility.initialMovementElevation = uniform(-90deg, 90deg)
*.drone*[*].mobility.angleDelta = normal(0deg, 30deg)
*.drone*[*].mobility.rotationAxisAngle = uniform(-10deg,10deg)
*.drone*[*].mobility.speed = truncnormal(15mps, 5mps)
*.drone*[*].mobility.initFromDisplayString = false
*.drone2[*].mobility.initialX = uniform(10m,50m)
*.drone1[*].mobility.initialX = uniform(280m,320m)
*.drone3[*].mobility.initialX = uniform(550m,590m)
*.drone4[*].mobility.initialX = uniform(280m,320m)
*.drone1[*].mobility.initialY = uniform(10m,50m)
*.drone2[*].mobility.initialY = uniform(180m,220m)
*.drone3[*].mobility.initialY = uniform(160m,200m)
*.drone4[*].mobility.initialY = uniform(320m,380m)
*.drone1[*].mobility.initialZ = 0m
*.drone2[*].mobility.initialZ = 0m
*.drone3[*].mobility.initialZ = 0m
*.drone4[*].mobility.initialZ = 0m

*.drone1[*].mbase = "bstion[0]"
*.drone2[*].mbase = "bstion[1]"
*.drone3[*].mbase = "bstion[2]"
*.drone4[*].mbase = "bstion[3]"

# ------------- Application Setup
*.drone*[*].numApps = 1
*.drone*[*].app[0].typename = "canaapp"
*.drone*[*].app[0].destAddress = "224.0.0.10"    # address of the multicast group 
*.drone*[*].app[0].ttl = 10
*.drone*[*].app[0].msgSize = 14
*.drone*[*].app[0].maxBroadcastRadius = 1000m
**.d2dCqi = 10
repeat=10

[Config NumDrone_6]
*.dn = 60
*.missionid = intuniform(1,4)
*.penetrationrate = 0.4
*.drone*[*].mobility.typename = "DroneNetMob"
*.drone*[*].mobility.initFromDisplayString = false
#**.drone*.mobility.changeInterval = truncnormal(2s, 0.5s)
*.drone*[*].mobility.changeInterval =  0.1s
*.drone*[*].mobility.nd = 30
*.drone*[*].mobility.initialMovementHeading = uniform(0deg, 360deg)
*.drone*[*].mobility.initialMovementElevation = uniform(-90deg, 90deg)
*.drone*[*].mobility.angleDelta = normal(0deg, 30deg)
*.drone*[*].mobility.rotationAxisAngle = uniform(-10deg,10deg)
*.drone*[*].mobility.speed = truncnormal(15mps, 5mps)
*.drone*[*].mobility.initFromDisplayString = false
*.drone1[*].mobility.initialX = uniform(280m,320m)
*.drone1[*].mobility.initialY = uniform(10m,30m)
*.drone2[*].mobility.initialX = uniform(10m,50m)
*.drone1[*].mobility.initialX = uniform(280m,320m)
*.drone3[*].mobility.initialX = uniform(550m,590m)
*.drone4[*].mobility.initialX = uniform(280m,320m)
*.drone1[*].mobility.initialY = uniform(10m,50m)
*.drone2[*].mobility.initialY = uniform(180m,220m)
*.drone3[*].mobility.initialY = uniform(160m,200m)
*.drone4[*].mobility.initialY = uniform(320m,380m)
*.drone1[*].mobility.initialZ = 0m
*.drone2[*].mobility.initialZ = 0m
*.drone3[*].mobility.initialZ = 0m
*.drone4[*].mobility.initialZ = 0m

*.drone1[*].mbase = "bstion[0]"
*.drone2[*].mbase = "bstion[1]"
*.drone3[*].mbase = "bstion[2]"
*.drone4[*].mbase = "bstion[3]"

# ------------- Application Setup
*.drone*[*].numApps = 1
*.drone*[*].app[0].typename = "canaapp"
*.drone*[*].app[0].destAddress = "224.0.0.10"    # address of the multicast group 
*.drone*[*].app[0].ttl = 10
*.drone*[*].app[0].msgSize = 14
*.drone*[*].app[0].maxBroadcastRadius = 1000m
**.d2dCqi = 10
repeat=10


[Config NumDrone_7]
*.dn = 70
*.missionid = intuniform(1,4)
*.penetrationrate = 0.4
*.drone*[*].mobility.typename = "DroneNetMob"
*.drone*[*].mobility.initFromDisplayString = false
#**.drone*.mobility.changeInterval = truncnormal(2s, 0.5s)
*.drone*[*].mobility.changeInterval =  0.1s
*.drone*[*].mobility.nd = 30
*.drone*[*].mobility.initialMovementHeading = uniform(0deg, 360deg)
*.drone*[*].mobility.initialMovementElevation = uniform(-90deg, 90deg)
*.drone*[*].mobility.angleDelta = normal(0deg, 30deg)
*.drone*[*].mobility.rotationAxisAngle = uniform(-10deg,10deg)
*.drone*[*].mobility.speed = truncnormal(15mps, 5mps)
*.drone*[*].mobility.initFromDisplayString = false
*.drone1[*].mobility.initialX = uniform(280m,320m)
*.drone1[*].mobility.initialY = uniform(10m,30m)
*.drone2[*].mobility.initialX = uniform(10m,50m)
*.drone1[*].mobility.initialX = uniform(280m,320m)
*.drone3[*].mobility.initialX = uniform(550m,590m)
*.drone4[*].mobility.initialX = uniform(280m,320m)
*.drone1[*].mobility.initialY = uniform(10m,50m)
*.drone2[*].mobility.initialY = uniform(180m,220m)
*.drone3[*].mobility.initialY = uniform(160m,200m)
*.drone4[*].mobility.initialY = uniform(320m,380m)
*.drone1[*].mobility.initialZ = 0m
*.drone2[*].mobility.initialZ = 0m
*.drone3[*].mobility.initialZ = 0m
*.drone4[*].mobility.initialZ = 0m

*.drone1[*].mbase = "bstion[0]"
*.drone2[*].mbase = "bstion[1]"
*.drone3[*].mbase = "bstion[2]"
*.drone4[*].mbase = "bstion[3]"

# ------------- Application Setup
*.drone*[*].numApps = 1
*.drone*[*].app[0].typename = "canaapp"
*.drone*[*].app[0].destAddress = "224.0.0.10"    # address of the multicast group 
*.drone*[*].app[0].ttl = 10
*.drone*[*].app[0].msgSize = 14
*.drone*[*].app[0].maxBroadcastRadius = 1000m
**.d2dCqi = 10
repeat=10


[Config NumDrone_8]
*.dn = 80
*.missionid = intuniform(1,4)
*.penetrationrate = 0.4
*.drone*[*].mobility.typename = "DroneNetMob"
*.drone*[*].mobility.initFromDisplayString = false
#**.drone*.mobility.changeInterval = truncnormal(2s, 0.5s)
*.drone*[*].mobility.changeInterval =  0.1s
*.drone*[*].mobility.nd = 30
*.drone*[*].mobility.initialMovementHeading = uniform(0deg, 360deg)
*.drone*[*].mobility.initialMovementElevation = uniform(-90deg, 90deg)
*.drone*[*].mobility.angleDelta = normal(0deg, 30deg)
*.drone*[*].mobility.rotationAxisAngle = uniform(-10deg,10deg)
*.drone*[*].mobility.speed = truncnormal(15mps, 5mps)
*.drone*[*].mobility.initFromDisplayString = false
*.drone1[*].mobility.initialX = uniform(280m,320m)
*.drone1[*].mobility.initialY = uniform(10m,30m)
*.drone2[*].mobility.initialX = uniform(10m,50m)
*.drone1[*].mobility.initialX = uniform(280m,320m)
*.drone3[*].mobility.initialX = uniform(550m,590m)
*.drone4[*].mobility.initialX = uniform(280m,320m)
*.drone1[*].mobility.initialY = uniform(10m,50m)
*.drone2[*].mobility.initialY = uniform(180m,220m)
*.drone3[*].mobility.initialY = uniform(160m,200m)
*.drone4[*].mobility.initialY = uniform(320m,380m)
*.drone1[*].mobility.initialZ = 0m
*.drone2[*].mobility.initialZ = 0m
*.drone3[*].mobility.initialZ = 0m
*.drone4[*].mobility.initialZ = 0m

*.drone1[*].mbase = "bstion[0]"
*.drone2[*].mbase = "bstion[1]"
*.drone3[*].mbase = "bstion[2]"
*.drone4[*].mbase = "bstion[3]"

# ------------- Application Setup
*.drone*[*].numApps = 1
*.drone*[*].app[0].typename = "canaapp"
*.drone*[*].app[0].destAddress = "224.0.0.10"    # address of the multicast group 
*.drone*[*].app[0].ttl = 10
*.drone*[*].app[0].msgSize = 14
*.drone*[*].app[0].maxBroadcastRadius = 1000m
**.d2dCqi = 10
repeat=10


[Config NumDrone_9]
*.dn = 90
*.missionid = intuniform(1,4)
*.penetrationrate = 0.4
*.drone*[*].mobility.typename = "DroneNetMob"
*.drone*[*].mobility.initFromDisplayString = false
#**.drone*.mobility.changeInterval = truncnormal(2s, 0.5s)
*.drone*[*].mobility.changeInterval =  0.1s
*.drone*[*].mobility.nd = 30
*.drone*[*].mobility.initialMovementHeading = uniform(0deg, 360deg)
*.drone*[*].mobility.initialMovementElevation = uniform(-90deg, 90deg)
*.drone*[*].mobility.angleDelta = normal(0deg, 30deg)
*.drone*[*].mobility.rotationAxisAngle = uniform(-10deg,10deg)
*.drone*[*].mobility.speed = truncnormal(15mps, 5mps)
*.drone*[*].mobility.initFromDisplayString = false
*.drone1[*].mobility.initialX = uniform(280m,320m)
*.drone1[*].mobility.initialY = uniform(10m,30m)
*.drone2[*].mobility.initialX = uniform(10m,50m)
*.drone1[*].mobility.initialX = uniform(280m,320m)
*.drone3[*].mobility.initialX = uniform(550m,590m)
*.drone4[*].mobility.initialX = uniform(280m,320m)
*.drone1[*].mobility.initialY = uniform(10m,50m)
*.drone2[*].mobility.initialY = uniform(180m,220m)
*.drone3[*].mobility.initialY = uniform(160m,200m)
*.drone4[*].mobility.initialY = uniform(320m,380m)
*.drone1[*].mobility.initialZ = 0m
*.drone2[*].mobility.initialZ = 0m
*.drone3[*].mobility.initialZ = 0m
*.drone4[*].mobility.initialZ = 0m

*.drone1[*].mbase = "bstion[0]"
*.drone2[*].mbase = "bstion[1]"
*.drone3[*].mbase = "bstion[2]"
*.drone4[*].mbase = "bstion[3]"

# ------------- Application Setup
*.drone*[*].numApps = 1
*.drone*[*].app[0].typename = "canaapp"
*.drone*[*].app[0].destAddress = "224.0.0.10"    # address of the multicast group 
*.drone*[*].app[0].ttl = 10
*.drone*[*].app[0].msgSize = 14
*.drone*[*].app[0].maxBroadcastRadius = 1000m
**.d2dCqi = 10
repeat=10



[Config NumDrone_10]
*.dn = 100
*.missionid = intuniform(1,4)
*.penetrationrate = 0.4
*.drone*[*].mobility.typename = "DroneNetMob"
*.drone*[*].mobility.initFromDisplayString = false
#**.drone*.mobility.changeInterval = truncnormal(2s, 0.5s)
*.drone*[*].mobility.changeInterval =  0.1s
*.drone*[*].mobility.nd = 30
*.drone*[*].mobility.initialMovementHeading = uniform(0deg, 360deg)
*.drone*[*].mobility.initialMovementElevation = uniform(-90deg, 90deg)
*.drone*[*].mobility.angleDelta = normal(0deg, 30deg)
*.drone*[*].mobility.rotationAxisAngle = uniform(-10deg,10deg)
*.drone*[*].mobility.speed = truncnormal(15mps, 5mps)
*.drone*[*].mobility.initFromDisplayString = false
*.drone1[*].mobility.initialX = uniform(280m,320m)
*.drone1[*].mobility.initialY = uniform(10m,30m)
*.drone2[*].mobility.initialX = uniform(10m,50m)
*.drone1[*].mobility.initialX = uniform(280m,320m)
*.drone3[*].mobility.initialX = uniform(550m,590m)
*.drone4[*].mobility.initialX = uniform(280m,320m)
*.drone1[*].mobility.initialY = uniform(10m,50m)
*.drone2[*].mobility.initialY = uniform(180m,220m)
*.drone3[*].mobility.initialY = uniform(160m,200m)
*.drone4[*].mobility.initialY = uniform(320m,380m)
*.drone1[*].mobility.initialZ = 0m
*.drone2[*].mobility.initialZ = 0m
*.drone3[*].mobility.initialZ = 0m
*.drone4[*].mobility.initialZ = 0m

*.drone1[*].mbase = "bstion[0]"
*.drone2[*].mbase = "bstion[1]"
*.drone3[*].mbase = "bstion[2]"
*.drone4[*].mbase = "bstion[3]"

# ------------- Application Setup
*.drone*[*].numApps = 1
*.drone*[*].app[0].typename = "canaapp"
*.drone*[*].app[0].destAddress = "224.0.0.10"    # address of the multicast group 
*.drone*[*].app[0].ttl = 10
*.drone*[*].app[0].msgSize = 14
*.drone*[*].app[0].maxBroadcastRadius = 1000m
**.d2dCqi = 10
repeat=10


[Config NumDrone_11]
*.dn = 110
*.missionid = intuniform(1,4)
*.penetrationrate = 0.4
*.drone*[*].mobility.typename = "DroneNetMob"
*.drone*[*].mobility.initFromDisplayString = false
#**.drone*.mobility.changeInterval = truncnormal(2s, 0.5s)
*.drone*[*].mobility.changeInterval =  0.1s
*.drone*[*].mobility.nd = 30
*.drone*[*].mobility.initialMovementHeading = uniform(0deg, 360deg)
*.drone*[*].mobility.initialMovementElevation = uniform(-90deg, 90deg)
*.drone*[*].mobility.angleDelta = normal(0deg, 30deg)
*.drone*[*].mobility.rotationAxisAngle = uniform(-10deg,10deg)
*.drone*[*].mobility.speed = truncnormal(15mps, 5mps)
*.drone*[*].mobility.initFromDisplayString = false
*.drone1[*].mobility.initialX = uniform(280m,320m)
*.drone1[*].mobility.initialY = uniform(10m,30m)
*.drone2[*].mobility.initialX = uniform(10m,50m)
*.drone1[*].mobility.initialX = uniform(280m,320m)
*.drone3[*].mobility.initialX = uniform(550m,590m)
*.drone4[*].mobility.initialX = uniform(280m,320m)
*.drone1[*].mobility.initialY = uniform(10m,50m)
*.drone2[*].mobility.initialY = uniform(180m,220m)
*.drone3[*].mobility.initialY = uniform(160m,200m)
*.drone4[*].mobility.initialY = uniform(320m,380m)
*.drone1[*].mobility.initialZ = 0m
*.drone2[*].mobility.initialZ = 0m
*.drone3[*].mobility.initialZ = 0m
*.drone4[*].mobility.initialZ = 0m

*.drone1[*].mbase = "bstion[0]"
*.drone2[*].mbase = "bstion[1]"
*.drone3[*].mbase = "bstion[2]"
*.drone4[*].mbase = "bstion[3]"

# ------------- Application Setup
*.drone*[*].numApps = 1
*.drone*[*].app[0].typename = "canaapp"
*.drone*[*].app[0].destAddress = "224.0.0.10"    # address of the multicast group 
*.drone*[*].app[0].msgSize = 14
*.drone*[*].app[0].maxBroadcastRadius = 1000m
**.d2dCqi = 10
repeat=10


[Config NumDrone_12]
*.dn = 120
*.missionid = intuniform(1,4)
*.penetrationrate = 0.4
*.drone*[*].mobility.typename = "DroneNetMob"
*.drone*[*].mobility.initFromDisplayString = false
#**.drone*.mobility.changeInterval = truncnormal(2s, 0.5s)
*.drone*[*].mobility.changeInterval =  0.1s
*.drone*[*].mobility.nd = 30
*.drone*[*].mobility.initialMovementHeading = uniform(0deg, 360deg)
*.drone*[*].mobility.initialMovementElevation = uniform(-90deg, 90deg)
*.drone*[*].mobility.angleDelta = normal(0deg, 30deg)
*.drone*[*].mobility.rotationAxisAngle = uniform(-10deg,10deg)
*.drone*[*].mobility.speed = truncnormal(15mps, 5mps)
*.drone*[*].mobility.initFromDisplayString = false
*.drone1[*].mobility.initialX = uniform(280m,320m)
*.drone1[*].mobility.initialY = uniform(10m,30m)
*.drone2[*].mobility.initialX = uniform(10m,50m)
*.drone1[*].mobility.initialX = uniform(280m,320m)
*.drone3[*].mobility.initialX = uniform(550m,590m)
*.drone4[*].mobility.initialX = uniform(280m,320m)
*.drone1[*].mobility.initialY = uniform(10m,50m)
*.drone2[*].mobility.initialY = uniform(180m,220m)
*.drone3[*].mobility.initialY = uniform(160m,200m)
*.drone4[*].mobility.initialY = uniform(320m,380m)
*.drone1[*].mobility.initialZ = 0m
*.drone2[*].mobility.initialZ = 0m
*.drone3[*].mobility.initialZ = 0m
*.drone4[*].mobility.initialZ = 0m

*.drone1[*].mbase = "bstion[0]"
*.drone2[*].mbase = "bstion[1]"
*.drone3[*].mbase = "bstion[2]"
*.drone4[*].mbase = "bstion[3]"

# ------------- Application Setup
*.drone*[*].numApps = 1
*.drone*[*].app[0].typename = "canaapp"
*.drone*[*].app[0].destAddress = "224.0.0.10"    # address of the multicast group
*.drone*[*].app[0].ttl = 10
*.drone*[*].app[0].msgSize = 14
*.drone*[*].app[0].maxBroadcastRadius = 1000m
**.d2dCqi = 10
repeat=10


[Config NumDrone_13]
*.dn = 130
*.missionid = intuniform(1,4)
*.penetrationrate = 0.4
*.drone*[*].mobility.typename = "DroneNetMob"
*.drone*[*].mobility.initFromDisplayString = false
#**.drone*.mobility.changeInterval = truncnormal(2s, 0.5s)
*.drone*[*].mobility.changeInterval =  0.1s
*.drone*[*].mobility.nd = 30
*.drone*[*].mobility.initialMovementHeading = uniform(0deg, 360deg)
*.drone*[*].mobility.initialMovementElevation = uniform(-90deg, 90deg)
*.drone*[*].mobility.angleDelta = normal(0deg, 30deg)
*.drone*[*].mobility.rotationAxisAngle = uniform(-10deg,10deg)
*.drone*[*].mobility.speed = truncnormal(15mps, 5mps)
*.drone*[*].mobility.initFromDisplayString = false
*.drone1[*].mobility.initialX = uniform(280m,320m)
*.drone1[*].mobility.initialY = uniform(10m,30m)
*.drone2[*].mobility.initialX = uniform(10m,50m)
*.drone1[*].mobility.initialX = uniform(280m,320m)
*.drone3[*].mobility.initialX = uniform(550m,590m)
*.drone4[*].mobility.initialX = uniform(280m,320m)
*.drone1[*].mobility.initialY = uniform(10m,50m)
*.drone2[*].mobility.initialY = uniform(180m,220m)
*.drone3[*].mobility.initialY = uniform(160m,200m)
*.drone4[*].mobility.initialY = uniform(320m,380m)
*.drone1[*].mobility.initialZ = 0m
*.drone2[*].mobility.initialZ = 0m
*.drone3[*].mobility.initialZ = 0m
*.drone4[*].mobility.initialZ = 0m

*.drone1[*].mbase = "bstion[0]"
*.drone2[*].mbase = "bstion[1]"
*.drone3[*].mbase = "bstion[2]"
*.drone4[*].mbase = "bstion[3]"

# ------------- Application Setup
*.drone*[*].numApps = 1
*.drone*[*].app[0].typename = "canaapp"
*.drone*[*].app[0].destAddress = "224.0.0.10"    # address of the multicast group 
*.drone*[*].app[0].ttl = 10
*.drone*[*].app[0].msgSize = 14
*.drone*[*].app[0].maxBroadcastRadius = 1000m
**.d2dCqi = 10
repeat=10


[Config sp_1]
*.dn = 50
*.missionid = intuniform(1,4)
*.penetrationrate = 0.4
*.drone*[*].mobility.typename = "DroneNetMob"
*.drone*[*].mobility.initFromDisplayString = false
#**.drone*.mobility.changeInterval = truncnormal(2s, 0.5s)
*.drone*[*].mobility.changeInterval =  0.1s
*.drone*[*].mobility.nd = 25
*.drone*[*].mobility.initialMovementHeading = uniform(0deg, 360deg)
*.drone*[*].mobility.initialMovementElevation = uniform(-90deg, 90deg)
*.drone*[*].mobility.angleDelta = normal(0deg, 30deg)
*.drone*[*].mobility.rotationAxisAngle = uniform(-10deg,10deg)
*.drone*[*].mobility.speed = truncnormal(2.7777mps, 1mps)
*.drone*[*].mobility.initFromDisplayString = false
*.drone2[*].mobility.initialX = uniform(10m,50m)
*.drone1[*].mobility.initialX = uniform(280m,320m)
*.drone3[*].mobility.initialX = uniform(550m,590m)
*.drone4[*].mobility.initialX = uniform(280m,320m)
*.drone1[*].mobility.initialY = uniform(10m,50m)
*.drone2[*].mobility.initialY = uniform(180m,220m)
*.drone3[*].mobility.initialY = uniform(160m,200m)
*.drone4[*].mobility.initialY = uniform(320m,380m)
*.drone1[*].mobility.initialZ = 0m
*.drone2[*].mobility.initialZ = 0m
*.drone3[*].mobility.initialZ = 0m
*.drone4[*].mobility.initialZ = 0m

*.drone1[*].mbase = "bstion[0]"
*.drone2[*].mbase = "bstion[1]"
*.drone3[*].mbase = "bstion[2]"
*.drone4[*].mbase = "bstion[3]"

# ------------- Application Setup
*.drone*[*].numApps = 1
*.drone*[*].app[0].typename = "canaapp"
*.drone*[*].app[0].destAddress = "224.0.0.10"    # address of the multicast group 
*.drone*[*].app[0].ttl = 10
*.drone*[*].app[0].msgSize = 14
*.drone*[*].app[0].maxBroadcastRadius = 1000m
**.d2dCqi = 10
repeat=10


[Config sp_2]
*.dn = 50
*.missionid = intuniform(1,4)
*.penetrationrate = 0.4
*.drone*[*].mobility.typename = "DroneNetMob"
*.drone*[*].mobility.initFromDisplayString = false
#**.drone*.mobility.changeInterval = truncnormal(2s, 0.5s)
*.drone*[*].mobility.changeInterval =  0.1s
*.drone*[*].mobility.nd = 25
*.drone*[*].mobility.initialMovementHeading = uniform(0deg, 360deg)
*.drone*[*].mobility.initialMovementElevation = uniform(-90deg, 90deg)
*.drone*[*].mobility.angleDelta = normal(0deg, 30deg)
*.drone*[*].mobility.rotationAxisAngle = uniform(-10deg,10deg)
*.drone*[*].mobility.speed = truncnormal(5.5555mps, 2.7777mps)  
*.drone*[*].mobility.initFromDisplayString = false
*.drone2[*].mobility.initialX = uniform(10m,50m)
*.drone1[*].mobility.initialX = uniform(280m,320m)
*.drone3[*].mobility.initialX = uniform(550m,590m)
*.drone4[*].mobility.initialX = uniform(280m,320m)
*.drone1[*].mobility.initialY = uniform(10m,50m)
*.drone2[*].mobility.initialY = uniform(180m,220m)
*.drone3[*].mobility.initialY = uniform(160m,200m)
*.drone4[*].mobility.initialY = uniform(320m,380m)
*.drone1[*].mobility.initialZ = 0m
*.drone2[*].mobility.initialZ = 0m
*.drone3[*].mobility.initialZ = 0m
*.drone4[*].mobility.initialZ = 0m

*.drone1[*].mbase = "bstion[0]"
*.drone2[*].mbase = "bstion[1]"
*.drone3[*].mbase = "bstion[2]"
*.drone4[*].mbase = "bstion[3]"

# ------------- Application Setup
*.drone*[*].numApps = 1
*.drone*[*].app[0].typename = "canaapp"
*.drone*[*].app[0].destAddress = "224.0.0.10"    # address of the multicast group 
*.drone*[*].app[0].ttl = 10